%NProcShared=20
%mem=50GB
%chk=Molecule1.inp.chk

#p B3LYP/3-21  opt  integral=superfinegrid freq

title
0  1
O           1.16400         0.43130        -0.27210
C           2.23210        -0.12170        -0.04060
C           2.96680        -0.86850        -1.07990
C           2.46920        -0.93780        -2.38080
C           3.17820        -1.64420        -3.35250
C           4.38040        -2.28280        -3.02280
O           5.04370        -2.95490        -4.01120
C           4.88190        -2.22300        -1.71540
O           6.02590        -2.78230        -1.21380
C           6.80190        -3.60970        -2.06830
C           4.16460        -1.50500        -0.74840
H           2.69300        -0.08470         0.96080
H           1.53520        -0.44290        -2.63950
H           2.77750        -1.68490        -4.36160
H           4.55490        -2.86520        -4.84580
H           7.63160        -4.00780        -1.47540
H           7.23960        -3.03150        -2.88790
H           6.22400        -4.46630        -2.42940
H           4.55570        -1.45510         0.26520

